/*--------------------------------*- C++ -*----------------------------------*\
| =========                 |                                                 |
| \\      /  F ield         | OpenFOAM: The Open Source CFD Toolbox           |
|  \\    /   O peration     | Version:  v1812                                 |
|   \\  /    A nd           | Web:      www.OpenFOAM.com                      |
|    \\/     M anipulation  |                                                 |
\*---------------------------------------------------------------------------*/
FoamFile
{
    version     2.0;
    format      ascii;
    class       dictionary;
    object      controlDict;
}
// * * * * * * * * * * * * * * * * * * * * * * * * * * * * * * * * * * * * * //

application     speciesFoam;

startFrom       startTime;

startTime       0;

stopAt          endTime;

endTime         10.0;

deltaT          1.25E-4;

writeControl    runTime;

writeInterval   1.0;

purgeWrite      0;

writeFormat     binary;

writePrecision  15;

writeCompression off;

timeFormat      general;

timePrecision   8;

runTimeModifiable true;

adjustTimeStep true;

maxCo 1.0;

// ************************************************************************* //
