/*--------------------------------*- C++ -*----------------------------------*\
| =========                 |                                                 |
| \\      /  F ield         | OpenFOAM: The Open Source CFD Toolbox           |
|  \\    /   O peration     | Version:  v1812                                 |
|   \\  /    A nd           | Web:      www.OpenFOAM.com                      |
|    \\/     M anipulation  |                                                 |
\*---------------------------------------------------------------------------*/
FoamFile
{
    version     2.0;
    format      ascii;
    class       dictionary;
    object      fvSolution;
}
// * * * * * * * * * * * * * * * * * * * * * * * * * * * * * * * * * * * * * //

solvers
{
  p
  {
    solver          GAMG;
    smoother        GaussSeidel;
    tolerance       1e-8;
    relTol          0.0;
  }

  U
  {
    solver          smoothSolver;
    smoother        GaussSeidel;
    tolerance       1e-8;
    relTol          0;
    nSweeps         1;
  }

}

SIMPLE
{
    nNonOrthogonalCorrectors 0;
    consistent yes;
    pRefCell        0;
    pRefValue       0;

    residualControl
    {
        p               1e-5;
        U               1e-4;
    }

}

relaxationFactors
{
    equations
    {
        U               0.7;
    }
    fields
    {
        p               1.0;
    }
}

// ************************************************************************* //
