/*--------------------------------*- C++ -*----------------------------------*\
| =========                 |                                                 |
| \\      /  F ield         | OpenFOAM: The Open Source CFD Toolbox           |
|  \\    /   O peration     | Version:  v1812                                 |
|   \\  /    A nd           | Web:      www.OpenFOAM.com                      |
|    \\/     M anipulation  |                                                 |
\*---------------------------------------------------------------------------*/
FoamFile
{
    version     2.0;
    format      ascii;
    class       dictionary;
    object      transportProperties;
}
// * * * * * * * * * * * * * * * * * * * * * * * * * * * * * * * * * * * * * //

transportModel  Newtonian;

nu              0.03243173121; // kinematic liquid viscosity
// Pe=5x10^4; Re=19.6; Sc=Pe/Re=2551.02; DA = nu/Sc
DA              DA [0 2 -1 0 0 0 0] 1.2713240668438508e-05;
DP              DP [0 2 -1 0 0 0 0] 1.2713240668438508e-05;
// Da=0.3; Da=k/(d_b x U_b); U_b=0.63062704; d_b=1
kA              kA [0 0 -1 0 0 0 0] 0.189188112;
A_model A_model_decay.pt;
P_model P_model_decay.pt;
// ************************************************************************* //
