/*--------------------------------*- C++ -*----------------------------------*\
| =========                 |                                                 |
| \\      /  F ield         | OpenFOAM: The Open Source CFD Toolbox           |
|  \\    /   O peration     | Version:  v1812                                 |
|   \\  /    A nd           | Web:      www.OpenFOAM.com                      |
|    \\/     M anipulation  |                                                 |
\*---------------------------------------------------------------------------*/
FoamFile
{
    version     2.0;
    format      ascii;
    class       dictionary;
    object      fvSolution;
}
// * * * * * * * * * * * * * * * * * * * * * * * * * * * * * * * * * * * * * //

solvers
{
  p
  {
      solver          GAMG;
      smoother        DIC;
      tolerance       1e-8;
      relTol          0;
  }

  U
  {
      solver          smoothSolver;
      smoother        symGaussSeidel;
      tolerance       1e-8;
      relTol          0;
  }

  pFinal
  {
      $p;
      //relTol          0;
  }

  UFinal
  {
      $U;
      //relTol          0;
  }

}

PIMPLE
{
    momentumPredictor   yes;
    nOuterCorrectors    10;
    nCorrectors         3;
    nNonOrthogonalCorrectors 3;
    pRefCell            0;
    pRefValue           0;
    turbOnFinalIterOnly no;
    residualControl
    {
        U
        {
                tolerance   1e-5;
                relTol      0;
        }
        p
        {
                tolerance   5e-4;
                relTol      0;
        }
     }
}

relaxationFactors
{
    equations
    {
        ".*"   1;
    }
}

// ************************************************************************* //
