/*--------------------------------*- C++ -*----------------------------------*\
| =========                 |                                                 |
| \\      /  F ield         | OpenFOAM: The Open Source CFD Toolbox           |
|  \\    /   O peration     | Version:  v1812                                 |
|   \\  /    A nd           | Web:      www.OpenFOAM.com                      |
|    \\/     M anipulation  |                                                 |
\*---------------------------------------------------------------------------*/
FoamFile
{
    version     2.0;
    format      ascii;
    class       dictionary;
    object      transportProperties;
}
// * * * * * * * * * * * * * * * * * * * * * * * * * * * * * * * * * * * * * //

transportModel  Newtonian;

nu              6.118093896E-3; // kinematic liquid viscosity
// Pe=5x10^4; Re=501.8; Sc=Pe/Re=99.64; DA = nu/Sc
DA              DA [0 2 -1 0 0 0 0] 6.140198610999598e-05;
A_model A_model_phys.pt;
// ************************************************************************* //
