/*--------------------------------*- C++ -*----------------------------------*\
| =========                 |                                                 |
| \\      /  F ield         | OpenFOAM: The Open Source CFD Toolbox           |
|  \\    /   O peration     | Version:  v1812                                 |
|   \\  /    A nd           | Web:      www.OpenFOAM.com                      |
|    \\/     M anipulation  |                                                 |
\*---------------------------------------------------------------------------*/
FoamFile
{
    version     2.0;
    format      ascii;
    class       dictionary;
    object      transportProperties;
}
// * * * * * * * * * * * * * * * * * * * * * * * * * * * * * * * * * * * * * //

transportModel  Newtonian;

nu              0.01013463867; // kinematic liquid viscosity
// Pe=5x10^4; Re=289.2; Sc=Pe/Re=172.89; DA = nu/Sc
DA              DA [0 2 -1 0 0 0 0] 5.8618998611834114e-05;
DP              DP [0 2 -1 0 0 0 0] 5.8618998611834114e-05;
DB              DB [0 2 -1 0 0 0 0] 5.8618998611834114e-05;
// Da=0.3; Da=k/(d_b x U_b); U_b=2.93135279; d_b=1
kAB              kAB [0 3 -1 0 -1 0 0] 0.879405837;
// ************************************************************************* //
